AMOSTRA/MOL/_ATERRAMENTO.dss
! Aterramento do neutro (no 4) dos secundarios de BT
! Reactor de 0.5 ohm entre o no 4 e a terra (no 0).
New Reactor.NEUTRO_2434138-9051498 phases=1 bus1=2434138-9051498.4 bus2=2434138-9051498.0 R=0.5 X=0
New Reactor.NEUTRO_2434139-9041040 phases=1 bus1=2434139-9041040.4 bus2=2434139-9041040.0 R=0.5 X=0
New Reactor.NEUTRO_2434141-9047397 phases=1 bus1=2434141-9047397.4 bus2=2434141-9047397.0 R=0.5 X=0
New Reactor.NEUTRO_2434142-9048270v phases=1 bus1=2434142-9048270v.4 bus2=2434142-9048270v.0 R=0.5 X=0
New Reactor.NEUTRO_2434143-9051500 phases=1 bus1=2434143-9051500.4 bus2=2434143-9051500.0 R=0.5 X=0
New Reactor.NEUTRO_2434144-9053698v phases=1 bus1=2434144-9053698v.4 bus2=2434144-9053698v.0 R=0.5 X=0
New Reactor.NEUTRO_2434149-9052074 phases=1 bus1=2434149-9052074.4 bus2=2434149-9052074.0 R=0.5 X=0
New Reactor.NEUTRO_2434151-9046228v phases=1 bus1=2434151-9046228v.4 bus2=2434151-9046228v.0 R=0.5 X=0
New Reactor.NEUTRO_2434154-9041777 phases=1 bus1=2434154-9041777.4 bus2=2434154-9041777.0 R=0.5 X=0
New Reactor.NEUTRO_2434155-9052085 phases=1 bus1=2434155-9052085.4 bus2=2434155-9052085.0 R=0.5 X=0
New Reactor.NEUTRO_2434156-9047376 phases=1 bus1=2434156-9047376.4 bus2=2434156-9047376.0 R=0.5 X=0
New Reactor.NEUTRO_2434157-9040364 phases=1 bus1=2434157-9040364.4 bus2=2434157-9040364.0 R=0.5 X=0
New Reactor.NEUTRO_2434158-9041223v phases=1 bus1=2434158-9041223v.4 bus2=2434158-9041223v.0 R=0.5 X=0
New Reactor.NEUTRO_2434160-9044784 phases=1 bus1=2434160-9044784.4 bus2=2434160-9044784.0 R=0.5 X=0
New Reactor.NEUTRO_2434162-9039540 phases=1 bus1=2434162-9039540.4 bus2=2434162-9039540.0 R=0.5 X=0
New Reactor.NEUTRO_2434164-11793120 phases=1 bus1=2434164-11793120.4 bus2=2434164-11793120.0 R=0.5 X=0
New Reactor.NEUTRO_2434165-9055701 phases=1 bus1=2434165-9055701.4 bus2=2434165-9055701.0 R=0.5 X=0
New Reactor.NEUTRO_2434167-9044001 phases=1 bus1=2434167-9044001.4 bus2=2434167-9044001.0 R=0.5 X=0
New Reactor.NEUTRO_2434168-9047399 phases=1 bus1=2434168-9047399.4 bus2=2434168-9047399.0 R=0.5 X=0
New Reactor.NEUTRO_2434169-9052322 phases=1 bus1=2434169-9052322.4 bus2=2434169-9052322.0 R=0.5 X=0
New Reactor.NEUTRO_2434170-9048364v phases=1 bus1=2434170-9048364v.4 bus2=2434170-9048364v.0 R=0.5 X=0
New Reactor.NEUTRO_2434171-9042338 phases=1 bus1=2434171-9042338.4 bus2=2434171-9042338.0 R=0.5 X=0
New Reactor.NEUTRO_2434180-9053611 phases=1 bus1=2434180-9053611.4 bus2=2434180-9053611.0 R=0.5 X=0
New Reactor.NEUTRO_2434181-9054006v phases=1 bus1=2434181-9054006v.4 bus2=2434181-9054006v.0 R=0.5 X=0
New Reactor.NEUTRO_2434182-9044860v phases=1 bus1=2434182-9044860v.4 bus2=2434182-9044860v.0 R=0.5 X=0
New Reactor.NEUTRO_2434183-9045872 phases=1 bus1=2434183-9045872.4 bus2=2434183-9045872.0 R=0.5 X=0
New Reactor.NEUTRO_2434185-9041652v phases=1 bus1=2434185-9041652v.4 bus2=2434185-9041652v.0 R=0.5 X=0
New Reactor.NEUTRO_2434186-9041518v phases=1 bus1=2434186-9041518v.4 bus2=2434186-9041518v.0 R=0.5 X=0
New Reactor.NEUTRO_2434187-9045841 phases=1 bus1=2434187-9045841.4 bus2=2434187-9045841.0 R=0.5 X=0
New Reactor.NEUTRO_2434188-9044350 phases=1 bus1=2434188-9044350.4 bus2=2434188-9044350.0 R=0.5 X=0
New Reactor.NEUTRO_2434190-9040336v phases=1 bus1=2434190-9040336v.4 bus2=2434190-9040336v.0 R=0.5 X=0
New Reactor.NEUTRO_2434194-11795086 phases=1 bus1=2434194-11795086.4 bus2=2434194-11795086.0 R=0.5 X=0
New Reactor.NEUTRO_2434195-9055705v phases=1 bus1=2434195-9055705v.4 bus2=2434195-9055705v.0 R=0.5 X=0
New Reactor.NEUTRO_2434200-9046619 phases=1 bus1=2434200-9046619.4 bus2=2434200-9046619.0 R=0.5 X=0
New Reactor.NEUTRO_2434203-9052066 phases=1 bus1=2434203-9052066.4 bus2=2434203-9052066.0 R=0.5 X=0
New Reactor.NEUTRO_2434205-9054110 phases=1 bus1=2434205-9054110.4 bus2=2434205-9054110.0 R=0.5 X=0
New Reactor.NEUTRO_2434206-9051478 phases=1 bus1=2434206-9051478.4 bus2=2434206-9051478.0 R=0.5 X=0
New Reactor.NEUTRO_2434208-9047683v phases=1 bus1=2434208-9047683v.4 bus2=2434208-9047683v.0 R=0.5 X=0
New Reactor.NEUTRO_2434209-9051462v phases=1 bus1=2434209-9051462v.4 bus2=2434209-9051462v.0 R=0.5 X=0
New Reactor.NEUTRO_2434210-9054883 phases=1 bus1=2434210-9054883.4 bus2=2434210-9054883.0 R=0.5 X=0
New Reactor.NEUTRO_2434212-9049396v phases=1 bus1=2434212-9049396v.4 bus2=2434212-9049396v.0 R=0.5 X=0
New Reactor.NEUTRO_2434217-9051708 phases=1 bus1=2434217-9051708.4 bus2=2434217-9051708.0 R=0.5 X=0
New Reactor.NEUTRO_2434221-9041566 phases=1 bus1=2434221-9041566.4 bus2=2434221-9041566.0 R=0.5 X=0
New Reactor.NEUTRO_2434222-9049675 phases=1 bus1=2434222-9049675.4 bus2=2434222-9049675.0 R=0.5 X=0
New Reactor.NEUTRO_2434223-9053962 phases=1 bus1=2434223-9053962.4 bus2=2434223-9053962.0 R=0.5 X=0
New Reactor.NEUTRO_2434224-9049161 phases=1 bus1=2434224-9049161.4 bus2=2434224-9049161.0 R=0.5 X=0
New Reactor.NEUTRO_2434225-9040342 phases=1 bus1=2434225-9040342.4 bus2=2434225-9040342.0 R=0.5 X=0
New Reactor.NEUTRO_2434226-9041208v phases=1 bus1=2434226-9041208v.4 bus2=2434226-9041208v.0 R=0.5 X=0
New Reactor.NEUTRO_2434227-9039553 phases=1 bus1=2434227-9039553.4 bus2=2434227-9039553.0 R=0.5 X=0
New Reactor.NEUTRO_2434228-9041718 phases=1 bus1=2434228-9041718.4 bus2=2434228-9041718.0 R=0.5 X=0
New Reactor.NEUTRO_2434230-9054114 phases=1 bus1=2434230-9054114.4 bus2=2434230-9054114.0 R=0.5 X=0
New Reactor.NEUTRO_2434231-9047715 phases=1 bus1=2434231-9047715.4 bus2=2434231-9047715.0 R=0.5 X=0
New Reactor.NEUTRO_2434232-9044788 phases=1 bus1=2434232-9044788.4 bus2=2434232-9044788.0 R=0.5 X=0
New Reactor.NEUTRO_2434233-9055691 phases=1 bus1=2434233-9055691.4 bus2=2434233-9055691.0 R=0.5 X=0
New Reactor.NEUTRO_2434234-9044624 phases=1 bus1=2434234-9044624.4 bus2=2434234-9044624.0 R=0.5 X=0
New Reactor.NEUTRO_2434235-9039696 phases=1 bus1=2434235-9039696.4 bus2=2434235-9039696.0 R=0.5 X=0
New Reactor.NEUTRO_2434236-9050476 phases=1 bus1=2434236-9050476.4 bus2=2434236-9050476.0 R=0.5 X=0
New Reactor.NEUTRO_2434237-9042346v phases=1 bus1=2434237-9042346v.4 bus2=2434237-9042346v.0 R=0.5 X=0
New Reactor.NEUTRO_2434238-9044423 phases=1 bus1=2434238-9044423.4 bus2=2434238-9044423.0 R=0.5 X=0
New Reactor.NEUTRO_2434239-11788347 phases=1 bus1=2434239-11788347.4 bus2=2434239-11788347.0 R=0.5 X=0
New Reactor.NEUTRO_2434240-9054009 phases=1 bus1=2434240-9054009.4 bus2=2434240-9054009.0 R=0.5 X=0
New Reactor.NEUTRO_2434265-9044379v phases=1 bus1=2434265-9044379v.4 bus2=2434265-9044379v.0 R=0.5 X=0
New Reactor.NEUTRO_2434266-9048954 phases=1 bus1=2434266-9048954.4 bus2=2434266-9048954.0 R=0.5 X=0
New Reactor.NEUTRO_2434267-9051512v phases=1 bus1=2434267-9051512v.4 bus2=2434267-9051512v.0 R=0.5 X=0
New Reactor.NEUTRO_2434268-9055373v phases=1 bus1=2434268-9055373v.4 bus2=2434268-9055373v.0 R=0.5 X=0
New Reactor.NEUTRO_2434269-9055559 phases=1 bus1=2434269-9055559.4 bus2=2434269-9055559.0 R=0.5 X=0
New Reactor.NEUTRO_2434270-9049176 phases=1 bus1=2434270-9049176.4 bus2=2434270-9049176.0 R=0.5 X=0
New Reactor.NEUTRO_2434271-9041244v phases=1 bus1=2434271-9041244v.4 bus2=2434271-9041244v.0 R=0.5 X=0
New Reactor.NEUTRO_2434272-9047124 phases=1 bus1=2434272-9047124.4 bus2=2434272-9047124.0 R=0.5 X=0
New Reactor.NEUTRO_2434273-9040868v phases=1 bus1=2434273-9040868v.4 bus2=2434273-9040868v.0 R=0.5 X=0
New Reactor.NEUTRO_2434274-9051112v phases=1 bus1=2434274-9051112v.4 bus2=2434274-9051112v.0 R=0.5 X=0
New Reactor.NEUTRO_2434275-9055736 phases=1 bus1=2434275-9055736.4 bus2=2434275-9055736.0 R=0.5 X=0
New Reactor.NEUTRO_2434276-9053316 phases=1 bus1=2434276-9053316.4 bus2=2434276-9053316.0 R=0.5 X=0
New Reactor.NEUTRO_2434277-9053313 phases=1 bus1=2434277-9053313.4 bus2=2434277-9053313.0 R=0.5 X=0
New Reactor.NEUTRO_2434278-9042737 phases=1 bus1=2434278-9042737.4 bus2=2434278-9042737.0 R=0.5 X=0
New Reactor.NEUTRO_2434279-9040866 phases=1 bus1=2434279-9040866.4 bus2=2434279-9040866.0 R=0.5 X=0
New Reactor.NEUTRO_2434280-9051418v phases=1 bus1=2434280-9051418v.4 bus2=2434280-9051418v.0 R=0.5 X=0
New Reactor.NEUTRO_2434281-9044158v phases=1 bus1=2434281-9044158v.4 bus2=2434281-9044158v.0 R=0.5 X=0
New Reactor.NEUTRO_2434282-11431140 phases=1 bus1=2434282-11431140.4 bus2=2434282-11431140.0 R=0.5 X=0
New Reactor.NEUTRO_2434283-11431158 phases=1 bus1=2434283-11431158.4 bus2=2434283-11431158.0 R=0.5 X=0
New Reactor.NEUTRO_2434284-9044135v phases=1 bus1=2434284-9044135v.4 bus2=2434284-9044135v.0 R=0.5 X=0
New Reactor.NEUTRO_2434285-9050944v phases=1 bus1=2434285-9050944v.4 bus2=2434285-9050944v.0 R=0.5 X=0
New Reactor.NEUTRO_2434286-9053607v phases=1 bus1=2434286-9053607v.4 bus2=2434286-9053607v.0 R=0.5 X=0
New Reactor.NEUTRO_2434368-9052990 phases=1 bus1=2434368-9052990.4 bus2=2434368-9052990.0 R=0.5 X=0
New Reactor.NEUTRO_2434369-9045566v phases=1 bus1=2434369-9045566v.4 bus2=2434369-9045566v.0 R=0.5 X=0
New Reactor.NEUTRO_2434370-9044027v phases=1 bus1=2434370-9044027v.4 bus2=2434370-9044027v.0 R=0.5 X=0
New Reactor.NEUTRO_2434371-9045687v phases=1 bus1=2434371-9045687v.4 bus2=2434371-9045687v.0 R=0.5 X=0
New Reactor.NEUTRO_2434374-9042997 phases=1 bus1=2434374-9042997.4 bus2=2434374-9042997.0 R=0.5 X=0
New Reactor.NEUTRO_2434375-9039528 phases=1 bus1=2434375-9039528.4 bus2=2434375-9039528.0 R=0.5 X=0
New Reactor.NEUTRO_2434378-9040292v phases=1 bus1=2434378-9040292v.4 bus2=2434378-9040292v.0 R=0.5 X=0
New Reactor.NEUTRO_2434382-9049803 phases=1 bus1=2434382-9049803.4 bus2=2434382-9049803.0 R=0.5 X=0
New Reactor.NEUTRO_2434383-9053615 phases=1 bus1=2434383-9053615.4 bus2=2434383-9053615.0 R=0.5 X=0
New Reactor.NEUTRO_2434384-9055692v phases=1 bus1=2434384-9055692v.4 bus2=2434384-9055692v.0 R=0.5 X=0
New Reactor.NEUTRO_2434390-9046825 phases=1 bus1=2434390-9046825.4 bus2=2434390-9046825.0 R=0.5 X=0
New Reactor.NEUTRO_2434395-9045565 phases=1 bus1=2434395-9045565.4 bus2=2434395-9045565.0 R=0.5 X=0
New Reactor.NEUTRO_2434396-9044021v phases=1 bus1=2434396-9044021v.4 bus2=2434396-9044021v.0 R=0.5 X=0
New Reactor.NEUTRO_2434397-9042955 phases=1 bus1=2434397-9042955.4 bus2=2434397-9042955.0 R=0.5 X=0
New Reactor.NEUTRO_2434399-9044881 phases=1 bus1=2434399-9044881.4 bus2=2434399-9044881.0 R=0.5 X=0
New Reactor.NEUTRO_2434400-9051902 phases=1 bus1=2434400-9051902.4 bus2=2434400-9051902.0 R=0.5 X=0
New Reactor.NEUTRO_2434401-9041771 phases=1 bus1=2434401-9041771.4 bus2=2434401-9041771.0 R=0.5 X=0
New Reactor.NEUTRO_2434402-9041773v phases=1 bus1=2434402-9041773v.4 bus2=2434402-9041773v.0 R=0.5 X=0
New Reactor.NEUTRO_2434403-9043046v phases=1 bus1=2434403-9043046v.4 bus2=2434403-9043046v.0 R=0.5 X=0
New Reactor.NEUTRO_2434404-9046241v phases=1 bus1=2434404-9046241v.4 bus2=2434404-9046241v.0 R=0.5 X=0
New Reactor.NEUTRO_2434405-9044354 phases=1 bus1=2434405-9044354.4 bus2=2434405-9044354.0 R=0.5 X=0
New Reactor.NEUTRO_2434424-9044842v phases=1 bus1=2434424-9044842v.4 bus2=2434424-9044842v.0 R=0.5 X=0
New Reactor.NEUTRO_2434425-9045669v phases=1 bus1=2434425-9045669v.4 bus2=2434425-9045669v.0 R=0.5 X=0
New Reactor.NEUTRO_2434426-9044009 phases=1 bus1=2434426-9044009.4 bus2=2434426-9044009.0 R=0.5 X=0
New Reactor.NEUTRO_2434427-9053956 phases=1 bus1=2434427-9053956.4 bus2=2434427-9053956.0 R=0.5 X=0
New Reactor.NEUTRO_2434428-9048382 phases=1 bus1=2434428-9048382.4 bus2=2434428-9048382.0 R=0.5 X=0
New Reactor.NEUTRO_2434429-9044445v phases=1 bus1=2434429-9044445v.4 bus2=2434429-9044445v.0 R=0.5 X=0
New Reactor.NEUTRO_2434433-9053649v phases=1 bus1=2434433-9053649v.4 bus2=2434433-9053649v.0 R=0.5 X=0
New Reactor.NEUTRO_2434434-9049864 phases=1 bus1=2434434-9049864.4 bus2=2434434-9049864.0 R=0.5 X=0
New Reactor.NEUTRO_2434435-9048379 phases=1 bus1=2434435-9048379.4 bus2=2434435-9048379.0 R=0.5 X=0
New Reactor.NEUTRO_2434436-9044360v phases=1 bus1=2434436-9044360v.4 bus2=2434436-9044360v.0 R=0.5 X=0
New Reactor.NEUTRO_2434441-9055040 phases=1 bus1=2434441-9055040.4 bus2=2434441-9055040.0 R=0.5 X=0
New Reactor.NEUTRO_2434445-9039454 phases=1 bus1=2434445-9039454.4 bus2=2434445-9039454.0 R=0.5 X=0
New Reactor.NEUTRO_2434446-9047583 phases=1 bus1=2434446-9047583.4 bus2=2434446-9047583.0 R=0.5 X=0
New Reactor.NEUTRO_2434447-9039476 phases=1 bus1=2434447-9039476.4 bus2=2434447-9039476.0 R=0.5 X=0
New Reactor.NEUTRO_2434448-9051401 phases=1 bus1=2434448-9051401.4 bus2=2434448-9051401.0 R=0.5 X=0
New Reactor.NEUTRO_2434452-9044007 phases=1 bus1=2434452-9044007.4 bus2=2434452-9044007.0 R=0.5 X=0
New Reactor.NEUTRO_2434453-9049739 phases=1 bus1=2434453-9049739.4 bus2=2434453-9049739.0 R=0.5 X=0
New Reactor.NEUTRO_2434454-9045696v phases=1 bus1=2434454-9045696v.4 bus2=2434454-9045696v.0 R=0.5 X=0
New Reactor.NEUTRO_2434459-9040350 phases=1 bus1=2434459-9040350.4 bus2=2434459-9040350.0 R=0.5 X=0
New Reactor.NEUTRO_2434471-9055741v phases=1 bus1=2434471-9055741v.4 bus2=2434471-9055741v.0 R=0.5 X=0
New Reactor.NEUTRO_2434472-9055682 phases=1 bus1=2434472-9055682.4 bus2=2434472-9055682.0 R=0.5 X=0
New Reactor.NEUTRO_2434473-9053182 phases=1 bus1=2434473-9053182.4 bus2=2434473-9053182.0 R=0.5 X=0
New Reactor.NEUTRO_2434474-9050958 phases=1 bus1=2434474-9050958.4 bus2=2434474-9050958.0 R=0.5 X=0
New Reactor.NEUTRO_2434475-9055316 phases=1 bus1=2434475-9055316.4 bus2=2434475-9055316.0 R=0.5 X=0
New Reactor.NEUTRO_2434476-9055321 phases=1 bus1=2434476-9055321.4 bus2=2434476-9055321.0 R=0.5 X=0
New Reactor.NEUTRO_2434477-9049008v phases=1 bus1=2434477-9049008v.4 bus2=2434477-9049008v.0 R=0.5 X=0
New Reactor.NEUTRO_2434478-9043742 phases=1 bus1=2434478-9043742.4 bus2=2434478-9043742.0 R=0.5 X=0
New Reactor.NEUTRO_2434479-9040896v phases=1 bus1=2434479-9040896v.4 bus2=2434479-9040896v.0 R=0.5 X=0
New Reactor.NEUTRO_2434480-9046984 phases=1 bus1=2434480-9046984.4 bus2=2434480-9046984.0 R=0.5 X=0
New Reactor.NEUTRO_2434481-9051209 phases=1 bus1=2434481-9051209.4 bus2=2434481-9051209.0 R=0.5 X=0
New Reactor.NEUTRO_2434482-9053430 phases=1 bus1=2434482-9053430.4 bus2=2434482-9053430.0 R=0.5 X=0
New Reactor.NEUTRO_2434483-9041444v phases=1 bus1=2434483-9041444v.4 bus2=2434483-9041444v.0 R=0.5 X=0
New Reactor.NEUTRO_2434484-9055547v phases=1 bus1=2434484-9055547v.4 bus2=2434484-9055547v.0 R=0.5 X=0
New Reactor.NEUTRO_2434485-11431118 phases=1 bus1=2434485-11431118.4 bus2=2434485-11431118.0 R=0.5 X=0
New Reactor.NEUTRO_2434486-11431128 phases=1 bus1=2434486-11431128.4 bus2=2434486-11431128.0 R=0.5 X=0
New Reactor.NEUTRO_2434487-11431131 phases=1 bus1=2434487-11431131.4 bus2=2434487-11431131.0 R=0.5 X=0
New Reactor.NEUTRO_2434488-9047312v phases=1 bus1=2434488-9047312v.4 bus2=2434488-9047312v.0 R=0.5 X=0
New Reactor.NEUTRO_2434489-9044155v phases=1 bus1=2434489-9044155v.4 bus2=2434489-9044155v.0 R=0.5 X=0
New Reactor.NEUTRO_2434490-11431151 phases=1 bus1=2434490-11431151.4 bus2=2434490-11431151.0 R=0.5 X=0
New Reactor.NEUTRO_2434491-11431173 phases=1 bus1=2434491-11431173.4 bus2=2434491-11431173.0 R=0.5 X=0
New Reactor.NEUTRO_2434492-9042671v phases=1 bus1=2434492-9042671v.4 bus2=2434492-9042671v.0 R=0.5 X=0
New Reactor.NEUTRO_2434493-9051282v phases=1 bus1=2434493-9051282v.4 bus2=2434493-9051282v.0 R=0.5 X=0
New Reactor.NEUTRO_2434494-9042700v phases=1 bus1=2434494-9042700v.4 bus2=2434494-9042700v.0 R=0.5 X=0
New Reactor.NEUTRO_2434495-9041245v phases=1 bus1=2434495-9041245v.4 bus2=2434495-9041245v.0 R=0.5 X=0
New Reactor.NEUTRO_2434496-9051274v phases=1 bus1=2434496-9051274v.4 bus2=2434496-9051274v.0 R=0.5 X=0
New Reactor.NEUTRO_2434497-9042656v phases=1 bus1=2434497-9042656v.4 bus2=2434497-9042656v.0 R=0.5 X=0
New Reactor.NEUTRO_2434525-9050219 phases=1 bus1=2434525-9050219.4 bus2=2434525-9050219.0 R=0.5 X=0
New Reactor.NEUTRO_2434526-9046448v phases=1 bus1=2434526-9046448v.4 bus2=2434526-9046448v.0 R=0.5 X=0
New Reactor.NEUTRO_2434532-9046623 phases=1 bus1=2434532-9046623.4 bus2=2434532-9046623.0 R=0.5 X=0
New Reactor.NEUTRO_2434537-9044026 phases=1 bus1=2434537-9044026.4 bus2=2434537-9044026.0 R=0.5 X=0
New Reactor.NEUTRO_2434539-9050861 phases=1 bus1=2434539-9050861.4 bus2=2434539-9050861.0 R=0.5 X=0
New Reactor.NEUTRO_2434541-9051730v phases=1 bus1=2434541-9051730v.4 bus2=2434541-9051730v.0 R=0.5 X=0
New Reactor.NEUTRO_2434542-9049748 phases=1 bus1=2434542-9049748.4 bus2=2434542-9049748.0 R=0.5 X=0
New Reactor.NEUTRO_2434543-9044884 phases=1 bus1=2434543-9044884.4 bus2=2434543-9044884.0 R=0.5 X=0
New Reactor.NEUTRO_2434545-9044750 phases=1 bus1=2434545-9044750.4 bus2=2434545-9044750.0 R=0.5 X=0
New Reactor.NEUTRO_2434549-9040359 phases=1 bus1=2434549-9040359.4 bus2=2434549-9040359.0 R=0.5 X=0
New Reactor.NEUTRO_2434553-9055718v phases=1 bus1=2434553-9055718v.4 bus2=2434553-9055718v.0 R=0.5 X=0
New Reactor.NEUTRO_2434554-9044020v phases=1 bus1=2434554-9044020v.4 bus2=2434554-9044020v.0 R=0.5 X=0
New Reactor.NEUTRO_2434557-9053950 phases=1 bus1=2434557-9053950.4 bus2=2434557-9053950.0 R=0.5 X=0
New Reactor.NEUTRO_2434559-12058059v phases=1 bus1=2434559-12058059v.4 bus2=2434559-12058059v.0 R=0.5 X=0
New Reactor.NEUTRO_2434564-9039478 phases=1 bus1=2434564-9039478.4 bus2=2434564-9039478.0 R=0.5 X=0
New Reactor.NEUTRO_2434565-9054108 phases=1 bus1=2434565-9054108.4 bus2=2434565-9054108.0 R=0.5 X=0
New Reactor.NEUTRO_2434568-9051873 phases=1 bus1=2434568-9051873.4 bus2=2434568-9051873.0 R=0.5 X=0
New Reactor.NEUTRO_2434569-9054112 phases=1 bus1=2434569-9054112.4 bus2=2434569-9054112.0 R=0.5 X=0
New Reactor.NEUTRO_2434570-9051735 phases=1 bus1=2434570-9051735.4 bus2=2434570-9051735.0 R=0.5 X=0
New Reactor.NEUTRO_2434571-9041203 phases=1 bus1=2434571-9041203.4 bus2=2434571-9041203.0 R=0.5 X=0
New Reactor.NEUTRO_2434572-9047719 phases=1 bus1=2434572-9047719.4 bus2=2434572-9047719.0 R=0.5 X=0
New Reactor.NEUTRO_2434573-9045371 phases=1 bus1=2434573-9045371.4 bus2=2434573-9045371.0 R=0.5 X=0
New Reactor.NEUTRO_2434574-9040344 phases=1 bus1=2434574-9040344.4 bus2=2434574-9040344.0 R=0.5 X=0
New Reactor.NEUTRO_2434575-9047387v phases=1 bus1=2434575-9047387v.4 bus2=2434575-9047387v.0 R=0.5 X=0
New Reactor.NEUTRO_2434576-9050478 phases=1 bus1=2434576-9050478.4 bus2=2434576-9050478.0 R=0.5 X=0
New Reactor.NEUTRO_2434577-9043571 phases=1 bus1=2434577-9043571.4 bus2=2434577-9043571.0 R=0.5 X=0
New Reactor.NEUTRO_2434578-9039678 phases=1 bus1=2434578-9039678.4 bus2=2434578-9039678.0 R=0.5 X=0
New Reactor.NEUTRO_2434583-9041570 phases=1 bus1=2434583-9041570.4 bus2=2434583-9041570.0 R=0.5 X=0
New Reactor.NEUTRO_2434594-9055473 phases=1 bus1=2434594-9055473.4 bus2=2434594-9055473.0 R=0.5 X=0
New Reactor.NEUTRO_2434595-9042618 phases=1 bus1=2434595-9042618.4 bus2=2434595-9042618.0 R=0.5 X=0
New Reactor.NEUTRO_2434596-9042522 phases=1 bus1=2434596-9042522.4 bus2=2434596-9042522.0 R=0.5 X=0
New Reactor.NEUTRO_2434597-9055746v phases=1 bus1=2434597-9055746v.4 bus2=2434597-9055746v.0 R=0.5 X=0
New Reactor.NEUTRO_2434598-9046981 phases=1 bus1=2434598-9046981.4 bus2=2434598-9046981.0 R=0.5 X=0
New Reactor.NEUTRO_2434599-9046996 phases=1 bus1=2434599-9046996.4 bus2=2434599-9046996.0 R=0.5 X=0
New Reactor.NEUTRO_2434600-9051429 phases=1 bus1=2434600-9051429.4 bus2=2434600-9051429.0 R=0.5 X=0
New Reactor.NEUTRO_2434601-9047278 phases=1 bus1=2434601-9047278.4 bus2=2434601-9047278.0 R=0.5 X=0
New Reactor.NEUTRO_2434602-9049237 phases=1 bus1=2434602-9049237.4 bus2=2434602-9049237.0 R=0.5 X=0
New Reactor.NEUTRO_2434603-9051608v phases=1 bus1=2434603-9051608v.4 bus2=2434603-9051608v.0 R=0.5 X=0
New Reactor.NEUTRO_2434604-11431123 phases=1 bus1=2434604-11431123.4 bus2=2434604-11431123.0 R=0.5 X=0
New Reactor.NEUTRO_2434605-9044157v phases=1 bus1=2434605-9044157v.4 bus2=2434605-9044157v.0 R=0.5 X=0
New Reactor.NEUTRO_2434606-9047186v phases=1 bus1=2434606-9047186v.4 bus2=2434606-9047186v.0 R=0.5 X=0
New Reactor.NEUTRO_2434607-11431210 phases=1 bus1=2434607-11431210.4 bus2=2434607-11431210.0 R=0.5 X=0
New Reactor.NEUTRO_2434608-11431239 phases=1 bus1=2434608-11431239.4 bus2=2434608-11431239.0 R=0.5 X=0
New Reactor.NEUTRO_2434609-9042667v phases=1 bus1=2434609-9042667v.4 bus2=2434609-9042667v.0 R=0.5 X=0
New Reactor.NEUTRO_2434610-11431094 phases=1 bus1=2434610-11431094.4 bus2=2434610-11431094.0 R=0.5 X=0
New Reactor.NEUTRO_2434611-9047187v phases=1 bus1=2434611-9047187v.4 bus2=2434611-9047187v.0 R=0.5 X=0
New Reactor.NEUTRO_2434612-11431260 phases=1 bus1=2434612-11431260.4 bus2=2434612-11431260.0 R=0.5 X=0
New Reactor.NEUTRO_2434613-9044129v phases=1 bus1=2434613-9044129v.4 bus2=2434613-9044129v.0 R=0.5 X=0
New Reactor.NEUTRO_2434614-9044041v phases=1 bus1=2434614-9044041v.4 bus2=2434614-9044041v.0 R=0.5 X=0
New Reactor.NEUTRO_2434615-9053142v phases=1 bus1=2434615-9053142v.4 bus2=2434615-9053142v.0 R=0.5 X=0
...
